/*--------------------------------*- C++ -*----------------------------------*\
| =========                 |                                                 |
| \\      /  F ield         | OpenFOAM: The Open Source CFD Toolbox           |
|  \\    /   O peration     | Version:  2.4.0                                 |
|   \\  /    A nd           | Web:      www.OpenFOAM.org                      |
|    \\/     M anipulation  |                                                 |
\*---------------------------------------------------------------------------*/
FoamFile
{
    version     2.0;
    format      ascii;
    class       polyBoundaryMesh;
    location    "0.001/polyMesh";
    object      boundary;
}
// * * * * * * * * * * * * * * * * * * * * * * * * * * * * * * * * * * * * * //

7
(
    symmetryAxis
    {
        type            symmetryPlane;
        inGroups        1(symmetryPlane);
        nFaces          0;
        startFace       7080;
    }
    rightWall
    {
        type            wall;
        inGroups        1(wall);
        nFaces          30;
        startFace       7080;
    }
    lowerWall
    {
        type            wall;
        inGroups        1(wall);
        nFaces          60;
        startFace       7110;
    }
    atmosphere
    {
        type            patch;
        nFaces          90;
        startFace       7170;
    }
    frontAndBack
    {
        type            empty;
        inGroups        1(empty);
        nFaces          0;
        startFace       7260;
    }
    frontAndBack_pos
    {
        type            wedge;
        inGroups        1(wedge);
        nFaces          3600;
        startFace       7260;
    }
    frontAndBack_neg
    {
        type            wedge;
        inGroups        1(wedge);
        nFaces          3600;
        startFace       10860;
    }
)

// ************************************************************************* //
