/*--------------------------------*- C++ -*----------------------------------*\
| =========                 |                                                 |
| \\      /  F ield         | OpenFOAM: The Open Source CFD Toolbox           |
|  \\    /   O peration     | Version:  2.4.0                                 |
|   \\  /    A nd           | Web:      www.OpenFOAM.org                      |
|    \\/     M anipulation  |                                                 |
\*---------------------------------------------------------------------------*/
FoamFile
{
    version     2.0;
    format      ascii;
    class       dictionary;
    object      blockMeshDict;
}
// * * * * * * * * * * * * * * * * * * * * * * * * * * * * * * * * * * * * * //

convertToMeters 0.001;

vertices
(
 (0 0 0)
 (50 0 0)
 (100 0 0)
 (0 2 0)
 (50 2 0)
 (100 2 0)
 (0 30 0)
 (50 30 0)
 (100 30 0)
 (0 0 10)
 (50 0 10)
 (100 0 10)
 (0 2 10)
 (50 2 10)
 (100 2 10)
 (0 30 10)
 (50 30 10)
 (100 30 10)
);

blocks
(
    hex (0 1 4 3 9 10 13 12) (50 20 1) simpleGrading (0.05 0.2 1)
    hex (1 2 5 4 10 11 14 13) (50 20 1) simpleGrading (20 0.2 1)
    hex (3 4 7 6 12 13 16 15) (50 45 1) simpleGrading (0.05 10 1)
    hex (4 5 8 7 13 14 17 16) (50 45 1) simpleGrading (20 10 1)
);

edges
(
);

boundary
(
    leftWall
    {
        type wall;
        faces
        (
            (0 9 12 3)
        );
    }
    rightWall
    {
        type wall;
        faces
        (
	 (2 5 14 11)
        );
    }
    lowerWall
    {
        type wall;
        faces
        (
            (0 1 10 9)
	    (1 2 11 10)

        );
    }
    atmosphere
    {
        type patch;
        faces
        (
            (3 12 15 6)
            (6 15 16 7)
            (7 16 17 8)
	    (8 17 14 5)
        );
    }
);

mergePatchPairs
(
);

// ************************************************************************* //
