/*--------------------------------*- C++ -*----------------------------------*\
| =========                 |                                                 |
| \\      /  F ield         | OpenFOAM: The Open Source CFD Toolbox           |
|  \\    /   O peration     | Version:  2.4.0                                 |
|   \\  /    A nd           | Web:      www.OpenFOAM.org                      |
|    \\/     M anipulation  |                                                 |
\*---------------------------------------------------------------------------*/
FoamFile
{
    version     2.0;
    format      ascii;
    class       dictionary;
    object      blockMeshDict;
}
// * * * * * * * * * * * * * * * * * * * * * * * * * * * * * * * * * * * * * //

convertToMeters 0.001;

vertices
(
 (0 0 0)
 (5 0 0)
 (10 0 0)
 (0 5 1)
 (5 5 1)
 (10 5 1)
 (0 10 1)
 (5 10 1)
 (10 10 1)
 (0 0 1)
 (5 0 1)
 (10 0 1)
 (0 5 1)
 (5 5 1)
 (10 5 1)
 (0 10 1)
 (5 10 1)
 (10 10 1)
);

blocks
(
    hex (0 1 4 3 9 10 13 12) (50 50 1) simpleGrading (1 1 1)
    hex (1 2 5 4 10 11 14 13) (50 50 1) simpleGrading (1 1 1)
    hex (3 4 7 6 12 13 16 15) (50 50 1) simpleGrading (1 1 1)
    hex (4 5 8 7 13 14 17 16) (50 50 1) simpleGrading (1 1 1)
   
);

edges
(
);

boundary
(
    leftWall
    {
        type wall;
        faces
        (
            (0 9 12 3)
            (3 12 15 6)
        );
    }
    rightWall
    {
        type wall;
        faces
        (
            (2 5 14 11)
            (5 8 17 14)
        );
    }
    lowerWall
    {
        type wall;
        faces
        (
            (0 1 10 9)
	    (1 2 11 10)
        );
    }
    atmosphere
    {
        type patch;
        faces
        (
            (6 15 16 7)
            (7 16 17 8)
        );
    }
);

mergePatchPairs
(
);

// ************************************************************************* //
